&share
obspath = '/glade/scratch/liuz/regional_mpasjedi/3denvar_single_15km_abi/hofx6h/2019050100/Data',
obs_platforms = 'abi_g16','sondes','aircraft','satwind','amsua_metop-a',
output_path = './'
fname_prefx = 'obsout_omb'
large_variable_support = .false.
/
