&share
obspath = '/glade/scratch/liuz/pandac/30km_coldstartFC_GFS_2streams/OMF/2018050300/1/Data',
obs_platforms = 'sondes','aircraft','satwind','dummy','amsua_metop-a',
output_path = './'
/
obspath = '/glade/scratch/schwartz/MPAS/30km_mesh/jedi_test/2020072600/jedi_ens_mean/Data',
obs_platforms = 'sondes','aircraft','satwind'
output_path = './'
